15
	Energy:    -536.7599527
C         -2.95331        0.98386        0.96350
N         -2.41713       -0.28953        0.62690
C         -1.07090       -0.13892        0.20793
N         -0.49539        0.91628        0.96447
C         -1.01085        2.11067        0.39747
N         -2.39942        1.98209        0.10975
Q        -0.93277        2.63423        0.85550
Q        -0.71753       -0.71965        0.37489
Q        -3.62960        0.95087        0.78588
H        -2.86937        1.20489        2.03593
H         -2.97493       -0.65294       -0.13407
H        -0.97946        0.00476       -0.87922
H          0.50951        0.88326        0.86292
H        -0.48006        2.36721       -0.52784
H         -2.83011        2.85948        0.38969
