116
	Energy:     393.7613253
C        -10.89034        1.32656        0.53203
C        -10.00902        0.33894        0.66159
C         -8.66575        0.86772        0.65242
N         -8.80722        2.24048        0.80629
C        -10.08502        2.53742        0.77911
C         -7.54053        0.14136        0.40841
C         -6.21676        0.87504        0.22041
N         -5.82760        2.06331        0.60000
C         -4.49178        2.21879        0.24764
C         -4.16548        1.02380       -0.50171
C         -5.17612        0.16029       -0.53527
C         -3.66348        3.25958        0.56720
C         -4.39042        4.63319        0.66203
N         -5.66236        4.91891        0.81308
C         -5.80958        6.29953        0.82215
C         -4.47013        6.83041        0.79293
C         -3.60171        5.86821        0.49402
C         -6.94772        7.04342        0.74257
C         -8.28466        6.32808        0.58186
N         -8.64536        5.10414        0.86339
C        -10.00633        4.98103        0.61025
C        -10.38992        6.24689        0.02124
C         -9.38135        7.11340       -0.00632
C        -10.80952        3.91006        0.89061
C         -2.11478        3.12492        0.65336
C         -1.40645        1.93608        0.41668
C          0.00979        1.84548        0.36886
C          0.84503        2.93455        0.62909
C          0.15921        4.07450        1.05870
C         -1.26042        4.13750        1.11784
C          2.33996        2.86520        0.52244
C          3.02909        1.64154        0.36734
C          4.43074        1.57390        0.26749
C          5.19152        2.73310        0.32556
C          4.55435        3.95821        0.46963
C          3.15099        4.02143        0.55836
C         -6.90848        8.57208        0.74037
C         -6.06232        9.31411       -0.10239
C         -5.96752       10.72286       -0.02880
C         -6.77279       11.48064        0.83536
C         -7.68411       10.74790        1.61597
C         -7.73660        9.33049        1.58568
C         -6.65826       12.96805        0.91237
C         -5.40814       13.61887        0.82151
C         -5.29209       15.01965        0.88254
C         -6.42612       15.80701        1.04397
C         -7.67297       15.19866        1.14396
C         -7.78655       13.79706        1.07705
C         -7.58486       -1.37835        0.24400
C         -8.49127       -2.02998       -0.61058
C         -8.57853       -3.43918       -0.68781
C         -7.71024       -4.28102        0.02438
C         -6.74588       -3.63078        0.81438
C         -6.69704       -2.21836        0.93798
C         -7.81363       -5.76915       -0.06056
C         -9.06401       -6.42037       -0.14494
C         -9.16957       -7.82033       -0.23746
C         -8.02404       -8.60756       -0.24007
C         -6.77614       -7.99986       -0.15083
C         -6.67348       -6.59848       -0.06422
C        -12.34292        4.03371        1.12795
C        -13.05087        5.24647        1.11052
C        -14.46391        5.34937        1.21159
C        -15.28991        4.24049        1.41276
C        -14.58555        3.05080        1.62022
C        -13.16807        2.97320        1.53374
C        -16.78711        4.33117        1.47274
C        -17.46711        5.56909        1.51350
C        -18.86984        5.65678        1.57887
C        -19.64095        4.50347        1.60928
C        -19.01453        3.26561        1.56026
C        -17.61129        3.18354        1.48536
Q         5.88935        2.70009        0.28143
Q        -8.07511       -9.30414       -0.28656
Q        -6.36985       16.50410        1.07412
Q       -20.33860        4.54587        1.64788
H        -11.92453        1.20970        0.28795
H        -10.28226       -0.70051        0.60962
H         -3.27922        0.88272       -1.09680
H        -5.25065       -0.76369       -1.07535
H         -4.19730        7.86959        0.83766
H        -2.58787        6.01896        0.19364
H        -11.32598        6.44507       -0.47341
H        -9.34805        8.09045       -0.44811
H         -1.90686        0.98322        0.30910
H          0.41854        0.86827        0.12567
H          0.69986        4.95557        1.39725
H         -1.64782        5.02202        1.61150
H          2.49728        0.69498        0.32567
H          4.91786        0.60918        0.14814
H          5.14115        4.87263        0.51170
H          2.71378        5.01264        0.64837
H         -5.42724        8.80841       -0.82784
H         -5.24651       11.21840       -0.67780
H         -8.36047       11.26759        2.29350
H         -8.44638        8.83258        2.24539
H         -4.49157       13.04166        0.71368
H         -4.31354       15.48831        0.80655
H         -8.56327       15.81039        1.27002
H         -8.78353       13.36608        1.14171
H         -9.17817       -1.45290       -1.22735
H         -9.34443       -3.86592       -1.33424
H         -6.02081       -4.21571        1.37889
H         -5.94051       -1.79001        1.59463
H         -9.98840       -5.84589       -0.12725
H        -10.14887       -8.28883       -0.30416
H         -5.87676       -8.61132       -0.15272
H         -5.67612       -6.16634       -0.01487
H        -12.54538        6.20268        1.07537
H        -14.87606        6.35216        1.13709
H        -15.10495        2.13480        1.89232
H        -12.75419        2.02950        1.87039
H        -16.92686        6.51160        1.50310
H        -19.34919        6.63222        1.60987
H        -19.60964        2.35579        1.57870
H        -17.18680        2.18441        1.43091
