12
	Energy:     -73.0835110
C         -2.78184        1.09864        0.00000
C         -2.09435       -0.10866       -0.00000
C         -0.70515       -0.09022       -0.00000
C         -0.00334        1.10882        0.00000
C         -0.71391        2.30268       -0.00000
C         -2.10321        2.31094       -0.00000
Q        -0.36614        2.91018       -0.00000
Q        -0.35293       -0.69515       -0.00000
Q        -3.48184        1.09607        0.00000
H        -2.63431       -1.05186       -0.00000
H         1.08347        1.11280       -0.00000
H        -2.65007        3.25016        0.00000
