76
	Energy:     286.4105786
C        -10.89829        1.33236        0.51454
C        -10.00747        0.35430        0.64636
C         -8.67296        0.90552        0.65174
N         -8.82574        2.26604        0.82307
C        -10.10412        2.54459        0.78451
C         -7.54005        0.20935        0.39031
C         -6.22876        0.93235        0.17958
N         -5.82608        2.10084        0.58707
C         -4.49881        2.24608        0.21698
C         -4.18883        1.07254       -0.56934
C         -5.21177        0.22643       -0.61813
C         -3.66513        3.26243        0.57388
C         -4.38694        4.62229        0.66203
N         -5.65770        4.88885        0.82303
C         -5.81945        6.26031        0.81503
C         -4.48566        6.81054        0.77114
C         -3.61426        5.86392        0.47156
C         -6.96477        6.97413        0.71925
C         -8.29163        6.27145        0.53657
N         -8.66356        5.06464        0.85066
C        -10.01729        4.95335        0.57921
C        -10.38717        6.20128       -0.05147
C         -9.36775        7.05166       -0.09766
C        -10.82320        3.90286        0.89960
C         -2.13627        3.11279        0.67615
C         -1.45335        1.89822        0.45607
C         -0.04852        1.79456        0.41119
C          0.73761        2.90414        0.66031
C          0.11871        4.07340        1.06228
C         -1.28754        4.14175        1.12922
Q         1.43514        2.86558        0.61595
C         -6.94727        8.47999        0.73235
C         -6.16347        9.23304       -0.16203
C         -6.11377       10.63205       -0.08245
C         -6.91037       11.30618        0.83809
C         -7.74727       10.58581        1.68664
C         -7.75086        9.18261        1.64919
Q        -6.89279       12.00523        0.87016
C         -7.56562       -1.28807        0.23964
C         -8.41580       -1.94052       -0.67292
C         -8.46580       -3.33988       -0.74476
C         -7.60758       -4.10860        0.03571
C         -6.70812       -3.48329        0.89559
C         -6.70062       -2.08458        1.01274
Q        -7.62588       -4.80697       -0.00836
C        -12.33605        4.03971        1.14747
C        -13.01601        5.27614        1.14170
C        -14.41763        5.39178        1.23237
C        -15.19714        4.26353        1.40805
C        -14.56501        3.04935        1.60292
C        -13.15951        2.96540        1.53707
Q       -15.89516        4.31092        1.43078
H        -11.92803        1.20947        0.25308
H        -10.26628       -0.68770        0.57080
H        -3.30092        0.93680       -1.16481
H         -5.30406       -0.68481       -1.17724
H        -4.23145        7.85895        0.79404
H         -2.60202        6.01912        0.15287
H       -11.32432        6.39462       -0.54789
H         -9.31808        8.01783       -0.56223
H         -1.97544        0.95481        0.35534
H          0.41394        0.83510        0.19373
H          0.71563        4.93558        1.34939
H         -1.67597        5.03616        1.60375
H         -5.55450        8.73922       -0.91776
H         -5.45183       11.18885       -0.74143
H         -8.39259       11.11109        2.38650
H         -8.39807        8.64479        2.34152
H         -9.07565       -1.36826       -1.32330
H         -9.17606       -3.82298       -1.41152
H         -6.01612       -4.08027        1.48462
H         -6.00215       -1.62380        1.71072
H        -12.48783        6.22167        1.11408
H        -14.88174        6.37326        1.17809
H        -15.14881        2.16082        1.83065
H        -12.74828        2.01560        1.85944
