34
	Energy:      72.5178449
C         -1.23203        0.45832       -0.01756
C         -0.48183       -0.16981       -1.02926
C          0.91840       -0.14222       -1.00477
C          1.58403        0.57691       -0.01424
C          0.85802        1.23775        0.97446
C         -0.53963        1.14769        0.99556
N         -2.68075        0.39741       -0.01898
C         -3.42172        1.62883       -0.31455
C         -2.81356        2.90446       -0.24384
C         -3.54642        4.09702       -0.37586
C         -4.90925        4.05282       -0.61609
C         -5.52048        2.82270       -0.81606
C         -4.77087        1.63629       -0.71569
C         -3.31600       -0.89121        0.27854
C         -2.60583       -2.11251        0.20081
C         -3.23734       -3.36136        0.33617
C         -4.59737       -3.42950        0.58635
C         -5.30615       -2.25394        0.79247
C         -4.65722       -1.00988        0.68878
Q        -5.28292        4.64384       -0.64867
Q         2.28341        0.60627       -0.01337
Q        -4.92096       -4.04927        0.62079
H         -0.98632       -0.71356       -1.82564
H         1.48416       -0.67984       -1.76146
H          1.37479        1.82110        1.73232
H         -1.09001        1.64771        1.79021
H         -1.75037        3.02740       -0.07399
H        -3.03879        5.05400       -0.27665
H         -6.57983        2.77423       -1.05219
H         -5.29071        0.71861       -0.97567
H         -1.53758       -2.14783        0.02258
H        -2.65356       -4.27332        0.23172
H         -6.36418       -2.29288        1.03612
H         -5.24866       -0.13814        0.95389
