22
	Energy:     -45.0953896
C         -4.16537        0.98322       -0.00030
C         -3.44398       -0.12265       -0.40860
C         -2.03999       -0.11523       -0.41051
C         -1.29450        1.00882        0.00026
C         -2.06006        2.11937        0.41074
C         -3.46395        2.10179        0.40829
C          0.20523        1.02218        0.00051
C          0.97081       -0.09114       -0.40234
C          2.37470       -0.07333       -0.40055
C          3.07610        1.04783        0.00094
C          2.35468        2.15624        0.40222
C          0.95069        2.14902        0.40362
H        -5.25050        0.97356       -0.00052
Q        -3.78229       -0.69829       -0.61879
H        -1.55470       -1.02764       -0.74780
H         -1.59124        3.04029        0.74823
Q        -3.81256        2.67131        0.61835
H          0.50201       -1.01468       -0.73265
Q         2.72332       -0.64407       -0.60725
H         4.16122        1.05751        0.00109
Q         2.69298        2.73312        0.60902
H          0.46538        3.06402        0.73377
