32
	Energy:       5.9263917
C         -4.01746        0.98282       -0.00428
C         -3.31725       -0.08220       -0.41533
C         -1.97118       -0.07678       -0.41308
C         -1.25643        1.00803       -0.00249
C         -1.99133        2.07958        0.40686
C         -3.33756        2.06020        0.40735
C          0.24526        1.02116       -0.00019
C          0.98503        0.00559       -0.51275
C          2.33275        0.01283       -0.50242
C          3.05147        1.04370        0.00821
C          2.31327        2.06348        0.51320
C          0.96553        2.04909        0.51546
H         -5.10298        0.97267       -0.00482
Q        -3.65813       -0.65266       -0.63527
H         -1.52154        2.99557        0.74961
Q        -3.68905        2.62428        0.62706
H          0.52672       -0.87061       -0.95944
C          4.55256        1.05462        0.01492
H         -1.48414       -0.98413       -0.75486
H          0.49057        2.91780        0.95938
C          5.28851        0.09803       -0.61750
C          6.63453        0.10941       -0.60349
C          7.31489        1.07339        0.02963
C          6.61487        2.02804        0.65517
C          5.26868        2.02121        0.65481
H          2.80842       -0.86362       -0.93016
H          2.77225        2.94743        0.94376
H          4.81804       -0.71472       -1.16123
Q         6.98584       -0.39824       -0.93346
H          8.40041        1.08059        0.03561
Q         6.95569        2.54028        0.98902
H          4.78151        2.82728        1.19374
