26
	Energy:      65.2763880
C         -4.23487        0.84872       -0.09656
C         -3.47050       -0.24837       -0.43314
C         -2.03253       -0.22013       -0.42859
C         -1.32262        0.96762       -0.06189
C         -2.16547        2.04705        0.29853
C         -3.56960        1.99056        0.28530
C          0.20978        1.09696       -0.05143
C          1.01949        0.10957       -0.66955
C          2.42277        0.09481       -0.61802
C          3.12224        1.10363        0.00280
C          2.39270        2.13927        0.54786
C          0.95351        2.15611        0.55491
H        -5.31838        0.80579       -0.10582
Q        -3.80133       -0.84102       -0.60435
N         -1.35819       -1.48073       -0.57294
H        -1.76617        2.99703        0.62850
Q        -3.93914        2.55259        0.47908
H          0.57635       -0.69760       -1.24575
Q         2.77518       -0.43031       -0.91812
H         4.20645        1.10428        0.02753
Q         2.74266        2.67974        0.82247
N          0.32720        3.38052        0.96766
H         -1.98173       -2.13092       -1.07030
H          0.21269        3.98919        0.15354
H         -1.18233       -1.89110        0.34490
H          0.96953        3.88170        1.59576
