39
	Energy:      -3.4671750
C          8.16012        5.66344       -0.74047
C          8.86041        4.43903       -0.73153
C         10.25912        4.39214       -0.82510
C         10.99050        5.57108       -0.92944
C         10.32966        6.79547       -0.93969
C          8.93079        6.83994       -0.84604
C          4.06537        8.19874       -0.62355
C          4.77167        9.41461       -0.73542
C          4.10732       10.64946       -0.77153
C          2.71888       10.69636       -0.69587
C          1.99287        9.51476       -0.58338
C          2.65939        8.28098       -0.54753
C          3.93069        3.38775       -0.38495
C          4.56849        2.12958       -0.37642
C          3.83713        0.93572       -0.29197
C          2.44861        0.97327       -0.21339
C          1.78926        2.19853       -0.21794
C          2.52276        3.39126       -0.30258
Q         2.38674       11.31226       -0.71461
Q        11.68852        5.54828       -0.97685
Q         2.08301        0.37777       -0.17199
N          6.03165        4.55240       -0.55296
C          6.68404        5.71073       -0.64675
N          6.09828        6.90768       -0.66951
C          4.76765        6.89633       -0.59137
N          4.02566        5.79312       -0.49436
C          4.70418        4.64588       -0.47985
H          8.31764        3.49766       -0.65185
H         10.76895        3.43215       -0.81651
H        10.89506        7.72029       -1.02096
H          8.44426        7.81476       -0.85769
H          5.85944        9.41295       -0.79779
H         4.68072       11.56874       -0.85960
H          0.90789        9.54431       -0.52382
H          2.06119        7.37458       -0.45979
H          5.65441        2.06504       -0.43760
H         4.35875       -0.01796       -0.28898
H          0.70458        2.23485       -0.15676
H          1.97585        4.33359       -0.30461
