45
	Energy:     321.7484453
C         -2.20240        0.36212       -0.53995
C         -0.69837        0.16529        0.08756
C         -2.39000        1.62454        0.50723
C         -3.84022        0.25851       -0.57139
C         -2.17467       -1.25646       -0.86859
C         -1.83613        2.80772        0.10044
C         -1.92397        3.93204        0.83615
C         -2.60305        3.92064        1.99443
C         -3.17258        2.78390        2.42439
C         -3.05475        1.64991        1.70169
C         -0.33858        0.00788        1.39855
C          0.95173       -0.10278        1.77568
C          1.92586       -0.09010        0.85242
C          1.61423        0.04627       -0.44615
C          0.32672        0.18859       -0.81720
C         -1.97964       -2.29824       -0.00484
C         -1.92547       -3.57628       -0.43556
C         -2.09551       -3.85770       -1.73690
C         -2.30919       -2.86382       -2.61405
C         -2.33089       -1.58700       -2.18702
C         -4.65274       -0.58449        0.13738
C         -5.99157       -0.58975       -0.02573
C         -6.56824        0.26938       -0.88060
C         -5.80854        1.12572       -1.58165
C         -4.46855        1.10689       -1.44036
Q        -2.65954        4.50760        2.37164
Q        -2.07239       -4.52086       -1.95979
Q         2.59517       -0.15417        1.04714
H         -1.28498        2.85795       -0.83739
H         -1.44974        4.84577        0.48822
H         -3.73295        2.77612        3.35567
H         -3.52850        0.75770        2.10032
H         -1.08489       -0.01989        2.18754
H          1.20084       -0.20207        2.82899
H          2.39787        0.04447       -1.19888
H          0.11435        0.30156       -1.87895
H         -1.84286       -2.12772        1.05900
H         -1.74065       -4.37877        0.27376
H         -2.45961       -3.08550       -3.66716
H         -2.49802       -0.80723       -2.92851
H         -4.24285       -1.29428        0.85037
H         -6.60221       -1.29192        0.53597
Q        -7.26359        0.27101       -0.96116
H         -6.27130        1.83219       -2.26533
H         -3.88619        1.81266       -2.03017
