44
	Energy:     153.5980880
C         -3.95900        1.13238        0.01106
C         -3.24350        0.07375       -0.44670
C         -1.89468        0.08036       -0.42638
C         -1.23134        1.15903        0.05806
C         -1.92962        2.22742        0.52038
C         -3.29241        2.22159        0.50016
C         -1.25452        3.30167        1.00306
C          0.10518        3.30748        1.02325
C          0.80346        2.23911        0.56090
C          0.12836        1.16487        0.07819
C         -1.20208       -0.98324       -0.88670
C          0.14545       -0.97744       -0.86679
C          0.81498        0.09201       -0.38632
C          2.16382        0.09698       -0.36675
C          2.85635        1.16161        0.11196
C          2.16626        2.24495        0.58109
C          2.83284        3.33410        1.07032
C          2.11734        4.39269        1.52818
C          0.76852        4.38612        1.50777
C         -3.98250        3.30500        0.96914
C         -3.28997        4.36965        1.44779
C         -1.94114        4.37457        1.46749
C          0.07591        5.44973        1.96806
C         -1.27161        5.44400        1.94801
C          4.21224        1.18889        0.14149
C          4.87173        2.25654        0.62117
C          4.18919        3.31844        1.08097
C         -5.31536        1.14804        0.00042
C         -5.99788        2.21003        0.46001
C         -5.33839        3.27775        0.93953
H         -3.75361       -0.80585       -0.84131
H         -1.70970       -1.86182       -1.28086
H          0.67203       -1.85157       -1.24568
H          2.69291       -0.77812       -0.74607
H          2.62745        5.27224        1.92290
H         -3.81906        5.24481        1.82699
H          0.58353        6.32828        2.36229
H         -1.79819        6.31815        2.32684
Q         4.61717        0.66460       -0.08466
H          5.95935        2.26120        0.63727
Q         4.58275        3.84616        1.31895
Q        -5.70891        0.62028       -0.23746
H         -7.08551        2.20538        0.44387
Q        -5.74333        3.80210        1.16555
