26
	Energy:      39.0237167
C         -5.29127        1.13086        0.00018
C         -4.59598       -0.06835        0.00027
C         -3.17661       -0.10330        0.00022
C         -2.45353        1.11966        0.00009
C         -3.16694        2.34829       -0.00001
C         -4.58655        2.32454        0.00003
C         -2.42218        3.54293       -0.00015
C         -1.02868        3.53744       -0.00016
C         -0.29337        2.33695       -0.00006
C         -1.01645        1.11399        0.00006
C         -0.30304       -0.11463        0.00013
C          1.11657       -0.09088        0.00010
C          1.82130        1.10280        0.00002
C          1.12601        2.30200       -0.00006
C         -1.04780       -1.30928        0.00025
C         -2.44130       -1.30378        0.00030
Q         1.95899        3.56818       -0.00013
Q        -5.40951        3.59725       -0.00007
Q         1.93954       -1.36359        0.00015
Q        -5.42897       -1.33453        0.00043
H        -6.37819        1.13514        0.00022
H        -2.92346        4.51240       -0.00025
H         -0.51977        4.50292       -0.00027
H         2.90822        1.09851        0.00001
H         -0.54652       -2.27875        0.00031
H         -2.95021       -2.26927        0.00040
