6
	Energy:       6.8397231
Q        -4.25647        0.03539       -0.00001
C         -3.61996        0.32671        0.00005
C         -2.53978       -0.46196       -0.00004
Q        -1.90328       -0.17065        0.00002
Xx        -3.52843        1.40803        0.00022
Xx        -2.63132       -1.54328       -0.00021
