18
	Energy:      63.0324518
C          0.09043        1.12270        0.02497
C          0.80930       -0.01737        0.04316
C          2.16409        0.01228        0.01513
C          2.79470        1.20944       -0.01242
C          2.08360        2.35652       -0.03237
C          0.73173        2.30630       -0.01682
C          2.80863        3.65990       -0.09390
C          2.97261       -1.25419        0.05117
Q         3.49434        1.22084        0.00677
Q        -0.60954        1.12696        0.02907
Xx         0.27333       -0.96389        0.07578
Xx         0.14045        3.21945       -0.03493
H          3.20268        4.17372       -1.03655
H          3.91293        3.77909        0.63838
H          2.54356        4.30515        0.74966
H          3.13703       -1.62886       -0.96467
H          2.46384       -2.03430        0.62861
H          3.94874       -1.09376        0.52226
